48
H24 C24
C -1.939434 -0.000000 0.969717
C -1.939434 0.969717 -0.000000
C -1.939434 -0.969717 0.000000
C -1.939434 0.000000 -0.969717
C -0.969717 -1.939434 0.000000
C -0.969717 1.939434 0.000000
C -0.969717 0.000000 -1.939434
C -0.969717 0.000000 1.939434
C -0.000000 0.969717 -1.939434
C -0.000000 0.969717 1.939434
C -0.000000 1.939434 -0.969717
C -0.000000 1.939434 0.969717
C 0.000000 -1.939434 -0.969717
C 0.000000 -1.939434 0.969717
C 0.000000 -0.969717 -1.939434
C 0.000000 -0.969717 1.939434
C 0.969717 -1.939434 0.000000
C 0.969717 -0.000000 -1.939434
C 0.969717 -0.000000 1.939434
C 0.969717 1.939434 -0.000000
C 1.939434 -0.969717 0.000000
C 1.939434 -0.000000 -0.969717
C 1.939434 -0.000000 0.969717
C 1.939434 0.969717 -0.000000
H -1.939400 -0.484800 -0.484800
H -1.939400 -0.484800 0.484800
H -1.939400 0.484800 -0.484800
H -1.939400 0.484800 0.484800
H -0.484800 -1.939400 -0.484800
H -0.484800 -1.939400 0.484800
H -0.484800 -0.484800 -1.939400
H -0.484800 -0.484800 1.939400
H -0.484800 0.484800 -1.939400
H -0.484800 0.484800 1.939400
H -0.484800 1.939400 -0.484800
H -0.484800 1.939400 0.484800
H 0.484800 -1.939400 -0.484800
H 0.484800 -1.939400 0.484800
H 0.484800 -0.484800 -1.939400
H 0.484800 -0.484800 1.939400
H 0.484800 0.484800 -1.939400
H 0.484800 0.484800 1.939400
H 0.484800 1.939400 -0.484800
H 0.484800 1.939400 0.484800
H 1.939400 -0.484800 -0.484800
H 1.939400 -0.484800 0.484800
H 1.939400 0.484800 -0.484800
H 1.939400 0.484800 0.484800