36
H12 C24
C -1.939434 -0.000000 0.969717
C -1.939434 0.969717 -0.000000
C -1.939434 -0.969717 0.000000
C -1.939434 0.000000 -0.969717
C -0.969717 -1.939434 0.000000
C -0.969717 1.939434 0.000000
C -0.969717 0.000000 -1.939434
C -0.969717 0.000000 1.939434
C -0.000000 0.969717 -1.939434
C -0.000000 0.969717 1.939434
C -0.000000 1.939434 -0.969717
C -0.000000 1.939434 0.969717
C 0.000000 -1.939434 -0.969717
C 0.000000 -1.939434 0.969717
C 0.000000 -0.969717 -1.939434
C 0.000000 -0.969717 1.939434
C 0.969717 -1.939434 0.000000
C 0.969717 -0.000000 -1.939434
C 0.969717 -0.000000 1.939434
C 0.969717 1.939434 -0.000000
C 1.939434 -0.969717 0.000000
C 1.939434 -0.000000 -0.969717
C 1.939434 -0.000000 0.969717
C 1.939434 0.969717 -0.000000
H -1.454600 -1.454600 0.000000
H -1.454600 0.000000 -1.454600
H -1.454600 0.000000 1.454600
H -1.454600 1.454600 0.000000
H -0.000000 -1.454600 -1.454600
H -0.000000 -1.454600 1.454600
H -0.000000 1.454600 -1.454600
H 0.000000 1.454600 1.454600
H 1.454600 -1.454600 -0.000000
H 1.454600 0.000000 -1.454600
H 1.454600 -0.000000 1.454600
H 1.454600 1.454600 0.000000